%chk=propane.chk
# hf/3-21g geom=connectivity

Title Card Required

0 1
 C                 -2.57462683    1.68843277    0.00000000
 H                 -2.21797240    0.67962276    0.00000000
 H                 -2.21795399    2.19283096   -0.87365150
 H                 -3.64462683    1.68844595    0.00000000
 C                 -2.06128461    2.41438904    1.25740497
 H                 -0.99128463    2.41420647    1.25750243
 H                 -2.41811687    1.91010323    2.13105625
 C                 -2.57437095    3.86640226    1.25726452
 H                 -2.21653000    4.37098821    0.38419930
 H                 -3.64437022    3.86694299    1.25613883
 H                 -2.21836919    4.37026098    2.13150084

 1 2 1.0 3 1.0 4 1.0 5 1.0
 2
 3
 4
 5 6 1.0 7 1.0 8 1.0
 6
 7
 8 9 1.0 10 1.0 11 1.0
 9
 10
 11

